Test_Network/Network1/Generators.txt
New Generator.GEN11 Bus1=134.1 kW=0 PF=1
New Generator.GEN12 Bus1=147.2 kW=0 PF=1
New Generator.GEN13 Bus1=170.1 kW=0 PF=1
New Generator.GEN14 Bus1=173.1 kW=0 PF=1
New Generator.GEN15 Bus1=174.1 kW=0 PF=1
New Generator.GEN16 Bus1=183.2 kW=0 PF=1
New Generator.GEN17 Bus1=1178.2 kW=0 PF=1
New Generator.GEN18 Bus1=1208.3 kW=0 PF=1
New Generator.GEN19 Bus1=1225.1 kW=0 PF=1
New Generator.GEN110 Bus1=1248.2 kW=0 PF=1
New Generator.GEN111 Bus1=1249.2 kW=0 PF=1
New Generator.GEN112 Bus1=1264.3 kW=0 PF=1
New Generator.GEN113 Bus1=1276.2 kW=0 PF=1
New Generator.GEN114 Bus1=1289.1 kW=0 PF=1
New Generator.GEN115 Bus1=1314.2 kW=0 PF=1
New Generator.GEN116 Bus1=1320.3 kW=0 PF=1
New Generator.GEN117 Bus1=1327.3 kW=0 PF=1
New Generator.GEN118 Bus1=1337.3 kW=0 PF=1
New Generator.GEN119 Bus1=1342.3 kW=0 PF=1
New Generator.GEN120 Bus1=1349.1 kW=0 PF=1
New Generator.GEN121 Bus1=1387.1 kW=0 PF=1
New Generator.GEN122 Bus1=1388.1 kW=0 PF=1
New Generator.GEN123 Bus1=1406.2 kW=0 PF=1
New Generator.GEN124 Bus1=1458.3 kW=0 PF=1
New Generator.GEN125 Bus1=1502.1 kW=0 PF=1
New Generator.GEN126 Bus1=1522.2 kW=0 PF=1
New Generator.GEN127 Bus1=1539.3 kW=0 PF=1
New Generator.GEN128 Bus1=1556.3 kW=0 PF=1
New Generator.GEN129 Bus1=1562.1 kW=0 PF=1
New Generator.GEN130 Bus1=1563.1 kW=0 PF=1
New Generator.GEN131 Bus1=1611.1 kW=0 PF=1
New Generator.GEN132 Bus1=1614.3 kW=0 PF=1
New Generator.GEN133 Bus1=1619.3 kW=0 PF=1
New Generator.GEN134 Bus1=1629.1 kW=0 PF=1
New Generator.GEN135 Bus1=1639.2 kW=0 PF=1
New Generator.GEN136 Bus1=1676.2 kW=0 PF=1
New Generator.GEN137 Bus1=1682.2 kW=0 PF=1
New Generator.GEN138 Bus1=1688.2 kW=0 PF=1
New Generator.GEN139 Bus1=1701.3 kW=0 PF=1
New Generator.GEN140 Bus1=1702.2 kW=0 PF=1
New Generator.GEN141 Bus1=1755.2 kW=0 PF=1
New Generator.GEN142 Bus1=1778.3 kW=0 PF=1
New Generator.GEN143 Bus1=1780.3 kW=0 PF=1
New Generator.GEN144 Bus1=1785.2 kW=0 PF=1
New Generator.GEN145 Bus1=1813.2 kW=0 PF=1
New Generator.GEN146 Bus1=1817.1 kW=0 PF=1
New Generator.GEN147 Bus1=1835.3 kW=0 PF=1
New Generator.GEN148 Bus1=1860.1 kW=0 PF=1
New Generator.GEN149 Bus1=1861.1 kW=0 PF=1
New Generator.GEN150 Bus1=1886.2 kW=0 PF=1
New Generator.GEN151 Bus1=1896.1 kW=0 PF=1
New Generator.GEN152 Bus1=1898.1 kW=0 PF=1
New Generator.GEN153 Bus1=1899.2 kW=0 PF=1
New Generator.GEN154 Bus1=1900.1 kW=0 PF=1
New Generator.GEN155 Bus1=1906.1 kW=0 PF=1
New Generator.GEN21 Bus1=2115.1 kW=0 PF=1
New Generator.GEN22 Bus1=2181.1 kW=0 PF=1
New Generator.GEN23 Bus1=2196.3 kW=0 PF=1
New Generator.GEN24 Bus1=2219.1 kW=0 PF=1
New Generator.GEN25 Bus1=2222.2 kW=0 PF=1
New Generator.GEN26 Bus1=2223.2 kW=0 PF=1
New Generator.GEN27 Bus1=2232.3 kW=0 PF=1
New Generator.GEN28 Bus1=2240.1 kW=0 PF=1
New Generator.GEN29 Bus1=2271.2 kW=0 PF=1
New Generator.GEN210 Bus1=2278.1 kW=0 PF=1
New Generator.GEN211 Bus1=2279.1 kW=0 PF=1
New Generator.GEN212 Bus1=2284.1 kW=0 PF=1
New Generator.GEN213 Bus1=2317.2 kW=0 PF=1
New Generator.GEN214 Bus1=2326.1 kW=0 PF=1
New Generator.GEN215 Bus1=2327.1 kW=0 PF=1
New Generator.GEN216 Bus1=2332.3 kW=0 PF=1
New Generator.GEN217 Bus1=2345.3 kW=0 PF=1
New Generator.GEN218 Bus1=2356.2 kW=0 PF=1
New Generator.GEN219 Bus1=2361.3 kW=0 PF=1
New Generator.GEN220 Bus1=2362.3 kW=0 PF=1
New Generator.GEN221 Bus1=2364.1 kW=0 PF=1
New Generator.GEN222 Bus1=2399.2 kW=0 PF=1
New Generator.GEN223 Bus1=2415.3 kW=0 PF=1
New Generator.GEN224 Bus1=2440.2 kW=0 PF=1
New Generator.GEN225 Bus1=2443.3 kW=0 PF=1
New Generator.GEN226 Bus1=2455.2 kW=0 PF=1
New Generator.GEN227 Bus1=2456.2 kW=0 PF=1
New Generator.GEN228 Bus1=2461.2 kW=0 PF=1
New Generator.GEN229 Bus1=2469.1 kW=0 PF=1
New Generator.GEN230 Bus1=2477.2 kW=0 PF=1
New Generator.GEN231 Bus1=2479.3 kW=0 PF=1
New Generator.GEN31 Bus1=384.3 kW=0 PF=1
New Generator.GEN32 Bus1=3109.2 kW=0 PF=1
New Generator.GEN33 Bus1=3117.2 kW=0 PF=1
New Generator.GEN34 Bus1=3118.2 kW=0 PF=1
New Generator.GEN35 Bus1=3119.1 kW=0 PF=1
New Generator.GEN36 Bus1=3132.3 kW=0 PF=1
New Generator.GEN37 Bus1=3149.2 kW=0 PF=1
New Generator.GEN38 Bus1=3151.3 kW=0 PF=1
New Generator.GEN39 Bus1=3163.1 kW=0 PF=1
New Generator.GEN310 Bus1=3188.2 kW=0 PF=1
New Generator.GEN311 Bus1=3190.1 kW=0 PF=1
New Generator.GEN312 Bus1=3204.1 kW=0 PF=1
New Generator.GEN313 Bus1=3209.1 kW=0 PF=1
New Generator.GEN314 Bus1=3210.1 kW=0 PF=1
New Generator.GEN315 Bus1=3237.2 kW=0 PF=1
New Generator.GEN316 Bus1=3238.2 kW=0 PF=1
New Generator.GEN317 Bus1=3249.3 kW=0 PF=1
New Generator.GEN318 Bus1=3250.3 kW=0 PF=1
New Generator.GEN319 Bus1=3255.2 kW=0 PF=1
New Generator.GEN320 Bus1=3261.3 kW=0 PF=1
New Generator.GEN321 Bus1=3288.2 kW=0 PF=1
New Generator.GEN322 Bus1=3299.1 kW=0 PF=1
New Generator.GEN323 Bus1=3307.1 kW=0 PF=1
New Generator.GEN324 Bus1=3342.3 kW=0 PF=1
New Generator.GEN325 Bus1=3359.1 kW=0 PF=1
New Generator.GEN326 Bus1=3379.3 kW=0 PF=1
New Generator.GEN327 Bus1=3380.3 kW=0 PF=1
New Generator.GEN328 Bus1=3391.1 kW=0 PF=1
New Generator.GEN329 Bus1=3392.1 kW=0 PF=1
New Generator.GEN330 Bus1=3412.2 kW=0 PF=1
New Generator.GEN331 Bus1=3442.2 kW=0 PF=1
New Generator.GEN332 Bus1=3459.3 kW=0 PF=1
New Generator.GEN333 Bus1=3475.3 kW=0 PF=1
New Generator.GEN334 Bus1=3478.2 kW=0 PF=1
New Generator.GEN335 Bus1=3480.3 kW=0 PF=1
New Generator.GEN336 Bus1=3481.3 kW=0 PF=1
New Generator.GEN337 Bus1=3493.1 kW=0 PF=1
New Generator.GEN338 Bus1=3503.1 kW=0 PF=1
New Generator.GEN339 Bus1=3504.1 kW=0 PF=1
New Generator.GEN41 Bus1=432.1 kW=0 PF=1
New Generator.GEN42 Bus1=452.1 kW=0 PF=1
New Generator.GEN43 Bus1=453.1 kW=0 PF=1
New Generator.GEN44 Bus1=461.2 kW=0 PF=1
New Generator.GEN45 Bus1=474.2 kW=0 PF=1
New Generator.GEN46 Bus1=475.2 kW=0 PF=1
New Generator.GEN47 Bus1=4167.1 kW=0 PF=1
New Generator.GEN48 Bus1=4174.1 kW=0 PF=1
New Generator.GEN49 Bus1=4184.2 kW=0 PF=1
New Generator.GEN410 Bus1=4190.3 kW=0 PF=1
New Generator.GEN411 Bus1=4206.2 kW=0 PF=1
New Generator.GEN412 Bus1=4246.2 kW=0 PF=1
New Generator.GEN413 Bus1=4247.1 kW=0 PF=1
New Generator.GEN414 Bus1=4248.1 kW=0 PF=1
New Generator.GEN415 Bus1=4249.1 kW=0 PF=1
New Generator.GEN416 Bus1=4280.1 kW=0 PF=1
New Generator.GEN417 Bus1=4288.2 kW=0 PF=1
New Generator.GEN418 Bus1=4292.3 kW=0 PF=1
New Generator.GEN419 Bus1=4294.2 kW=0 PF=1
New Generator.GEN420 Bus1=4302.2 kW=0 PF=1
New Generator.GEN421 Bus1=4303.2 kW=0 PF=1
New Generator.GEN422 Bus1=4311.1 kW=0 PF=1
New Generator.GEN423 Bus1=4358.2 kW=0 PF=1
New Generator.GEN424 Bus1=4366.2 kW=0 PF=1
New Generator.GEN425 Bus1=4397.3 kW=0 PF=1
New Generator.GEN426 Bus1=4411.1 kW=0 PF=1
New Generator.GEN427 Bus1=4414.3 kW=0 PF=1
New Generator.GEN428 Bus1=4416.1 kW=0 PF=1
New Generator.GEN429 Bus1=4447.3 kW=0 PF=1
New Generator.GEN430 Bus1=4448.3 kW=0 PF=1
New Generator.GEN431 Bus1=4468.3 kW=0 PF=1
New Generator.GEN432 Bus1=4473.1 kW=0 PF=1
New Generator.GEN433 Bus1=4484.2 kW=0 PF=1
New Generator.GEN434 Bus1=4492.2 kW=0 PF=1
New Generator.GEN435 Bus1=4520.3 kW=0 PF=1
New Generator.GEN436 Bus1=4522.1 kW=0 PF=1
New Generator.GEN437 Bus1=4527.1 kW=0 PF=1
New Generator.GEN438 Bus1=4554.3 kW=0 PF=1
New Generator.GEN439 Bus1=4590.2 kW=0 PF=1
New Generator.GEN440 Bus1=4591.2 kW=0 PF=1
New Generator.GEN441 Bus1=4622.3 kW=0 PF=1
New Generator.GEN442 Bus1=4645.3 kW=0 PF=1
New Generator.GEN443 Bus1=4679.2 kW=0 PF=1
New Generator.GEN444 Bus1=4692.2 kW=0 PF=1
New Generator.GEN445 Bus1=4708.3 kW=0 PF=1
New Generator.GEN446 Bus1=4748.2 kW=0 PF=1
New Generator.GEN447 Bus1=4783.3 kW=0 PF=1
New Generator.GEN448 Bus1=4802.1 kW=0 PF=1
New Generator.GEN449 Bus1=4816.2 kW=0 PF=1
New Generator.GEN450 Bus1=4831.1 kW=0 PF=1
New Generator.GEN451 Bus1=4833.1 kW=0 PF=1
New Generator.GEN452 Bus1=4854.2 kW=0 PF=1
New Generator.GEN453 Bus1=4886.3 kW=0 PF=1
New Generator.GEN454 Bus1=4889.1 kW=0 PF=1
New Generator.GEN455 Bus1=4939.3 kW=0 PF=1
New Generator.GEN456 Bus1=4945.1 kW=0 PF=1
New Generator.GEN457 Bus1=4960.3 kW=0 PF=1
New Generator.GEN458 Bus1=4989.1 kW=0 PF=1
New Generator.GEN459 Bus1=41000.2 kW=0 PF=1
New Generator.GEN460 Bus1=41022.1 kW=0 PF=1
New Generator.GEN461 Bus1=41050.3 kW=0 PF=1
New Generator.GEN462 Bus1=41078.1 kW=0 PF=1
New Generator.GEN463 Bus1=41085.2 kW=0 PF=1
New Generator.GEN464 Bus1=41091.3 kW=0 PF=1
New Generator.GEN465 Bus1=41144.1 kW=0 PF=1
New Generator.GEN466 Bus1=41147.2 kW=0 PF=1
New Generator.GEN467 Bus1=41150.3 kW=0 PF=1
New Generator.GEN468 Bus1=41161.1 kW=0 PF=1
New Generator.GEN469 Bus1=41163.3 kW=0 PF=1
New Generator.GEN470 Bus1=41172.3 kW=0 PF=1
New Generator.GEN471 Bus1=41194.1 kW=0 PF=1
New Generator.GEN472 Bus1=41207.1 kW=0 PF=1
New Generator.GEN473 Bus1=41212.1 kW=0 PF=1
New Generator.GEN474 Bus1=41216.2 kW=0 PF=1
New Generator.GEN475 Bus1=41230.2 kW=0 PF=1
